<additional>
<tazs>
<taz id="1" edges="230628519#5">
</taz>
<taz id="2" edges="589515206#10">
</taz>
<taz id="3" edges="231404787#2">
</taz>
<taz id="4" edges="211556987#1">
</taz>
<taz id="5" edges="230628536#2">
</taz>
</tazs>
</additional>
