<?xml version="1.0" encoding="UTF-8"?>

<!-- generated on Thu Mar 28 01:30:04 2019 by Eclipse SUMO netconvert Version 1.1.0
<configuration xmlns:xsi="http://www.w3.org/2001/XMLSchema-instance" xsi:noNamespaceSchemaLocation="http://sumo.dlr.de/xsd/netconvertConfiguration.xsd">

    <input>
        <osm-files value="Paulista.osm"/>
    </input>

    <output>
        <output-file value="paulista.net.xml"/>
    </output>

    <projection>
        <proj.utm value="true"/>
    </projection>

</configuration>
-->

<net version="1.1" junctionCornerDetail="5" limitTurnSpeed="5.50" xmlns:xsi="http://www.w3.org/2001/XMLSchema-instance" xsi:noNamespaceSchemaLocation="http://sumo.dlr.de/xsd/net_file.xsd">

    <location netOffset="-325680.33,2610397.74" convBoundary="0.00,0.00,8681.14,5341.20" origBoundary="-46.708093,-23.595613,-46.623334,-23.532092" projParameter="+proj=utm +zone=23 +ellps=WGS84 +datum=WGS84 +units=m +no_defs"/>

    <type id="highway.bridleway" priority="1" numLanes="1" speed="2.78" allow="pedestrian" oneway="1" width="2.00"/>
    <type id="highway.bus_guideway" priority="1" numLanes="1" speed="27.78" allow="bus" oneway="1"/>
    <type id="highway.cycleway" priority="1" numLanes="1" speed="8.33" allow="bicycle" oneway="0" width="1.00"/>
    <type id="highway.footway" priority="1" numLanes="1" speed="2.78" allow="pedestrian" oneway="1" width="2.00"/>
    <type id="highway.ford" priority="1" numLanes="1" speed="2.78" allow="army" oneway="0"/>
    <type id="highway.living_street" priority="3" numLanes="1" speed="2.78" disallow="tram rail_urban rail rail_electric ship" oneway="0"/>
    <type id="highway.motorway" priority="13" numLanes="2" speed="44.44" allow="private emergency authority army vip passenger hov taxi bus coach delivery truck trailer motorcycle evehicle custom1 custom2" oneway="1"/>
    <type id="highway.motorway_link" priority="12" numLanes="1" speed="22.22" allow="private emergency authority army vip passenger hov taxi bus coach delivery truck trailer motorcycle evehicle custom1 custom2" oneway="1"/>
    <type id="highway.path" priority="1" numLanes="1" speed="2.78" allow="bicycle pedestrian" oneway="1" width="2.00"/>
    <type id="highway.pedestrian" priority="1" numLanes="1" speed="2.78" allow="pedestrian" oneway="1" width="2.00"/>
    <type id="highway.primary" priority="9" numLanes="2" speed="27.78" disallow="tram rail_urban rail rail_electric ship" oneway="0"/>
    <type id="highway.primary_link" priority="8" numLanes="1" speed="22.22" disallow="tram rail_urban rail rail_electric ship" oneway="0"/>
    <type id="highway.raceway" priority="14" numLanes="2" speed="83.33" allow="vip" oneway="0"/>
    <type id="highway.residential" priority="4" numLanes="1" speed="13.89" disallow="tram rail_urban rail rail_electric ship" oneway="0"/>
    <type id="highway.secondary" priority="7" numLanes="2" speed="27.78" disallow="tram rail_urban rail rail_electric ship" oneway="0"/>
    <type id="highway.secondary_link" priority="6" numLanes="1" speed="22.22" disallow="tram rail_urban rail rail_electric ship" oneway="0"/>
    <type id="highway.service" priority="2" numLanes="1" speed="5.56" allow="delivery bicycle pedestrian" oneway="0"/>
    <type id="highway.stairs" priority="1" numLanes="1" speed="1.39" allow="pedestrian" oneway="1" width="2.00"/>
    <type id="highway.step" priority="1" numLanes="1" speed="1.39" allow="pedestrian" oneway="1" width="2.00"/>
    <type id="highway.steps" priority="1" numLanes="1" speed="1.39" allow="pedestrian" oneway="1" width="2.00"/>
    <type id="highway.tertiary" priority="6" numLanes="1" speed="22.22" disallow="tram rail_urban rail rail_electric ship" oneway="0"/>
    <type id="highway.tertiary_link" priority="5" numLanes="1" speed="22.22" disallow="tram rail_urban rail rail_electric ship" oneway="0"/>
    <type id="highway.track" priority="1" numLanes="1" speed="5.56" disallow="tram rail_urban rail rail_electric ship" oneway="0"/>
    <type id="highway.trunk" priority="11" numLanes="2" speed="27.78" disallow="tram rail_urban rail rail_electric bicycle pedestrian ship" oneway="0"/>
    <type id="highway.trunk_link" priority="10" numLanes="1" speed="22.22" disallow="tram rail_urban rail rail_electric bicycle pedestrian ship" oneway="0"/>
    <type id="highway.unclassified" priority="5" numLanes="1" speed="13.89" disallow="tram rail_urban rail rail_electric ship" oneway="0"/>
    <type id="highway.unsurfaced" priority="1" numLanes="1" speed="8.33" disallow="tram rail_urban rail rail_electric ship" oneway="0"/>
    <type id="railway.light_rail" priority="15" numLanes="1" speed="27.78" allow="rail_urban" oneway="1"/>
    <type id="railway.preserved" priority="15" numLanes="1" speed="27.78" allow="rail" oneway="1"/>
    <type id="railway.rail" priority="15" numLanes="1" speed="83.33" allow="rail rail_electric" oneway="1"/>
    <type id="railway.subway" priority="15" numLanes="1" speed="27.78" allow="rail_urban" oneway="1"/>
    <type id="railway.tram" priority="15" numLanes="1" speed="13.89" allow="tram" oneway="1"/>

    <edge id=":140829091_0" function="internal">
        <lane id=":140829091_0_0" index="0" disallow="tram rail_urban rail rail_electric ship" speed="13.89" length="18.57" shape="5562.65,4094.58 5566.79,4098.03 5569.93,4099.99 5573.27,4101.69 5578.00,4104.36"/>
        <lane id=":140829091_0_1" index="1" disallow="tram rail_urban rail rail_electric ship" speed="13.89" length="18.57" shape="5560.49,4096.94 5564.76,4100.52 5568.00,4102.56 5571.44,4104.33 5576.33,4107.09"/>
    </edge>
    <edge id=":140829091_2" function="internal">
        <lane id=":140829091_2_0" index="0" allow="delivery bicycle pedestrian" speed="13.89" length="18.49" shape="5560.49,4096.94 5573.97,4109.60"/>
    </edge>
    <edge id=":140829091_3" function="internal">
        <lane id=":140829091_3_0" index="0" allow="delivery bicycle pedestrian" speed="13.89" length="18.19" shape="5560.49,4096.94 5564.03,4100.94 5565.84,4104.24 5567.66,4107.52 5571.25,4111.46"/>
    </edge>
    <edge id=":140838881_0" function="internal">
        <lane id=":140838881_0_0" index="0" disallow="tram rail_urban rail rail_electric ship" speed="13.89" length="0.40" shape="5377.60,3854.08 5377.50,3853.93 5377.43,3853.83 5377.38,3853.72 5377.30,3853.56"/>
        <lane id=":140838881_0_1" index="1" disallow="tram rail_urban rail rail_electric ship" speed="13.89" length="0.40" shape="5380.26,3852.30 5380.23,3852.25 5380.21,3852.22 5380.19,3852.18 5380.16,3852.13"/>
    </edge>
    <edge id=":140848383_0" function="internal">
        <lane id=":140848383_0_0" index="0" disallow="tram rail_urban rail rail_electric ship" speed="6.66" length="9.36" shape="5073.27,4326.54 5071.25,4324.96 5069.20,4324.38 5067.13,4324.82 5065.03,4326.26"/>
    </edge>
    <edge id=":140848383_1" function="internal">
        <lane id=":140848383_1_0" index="0" disallow="tram rail_urban rail rail_electric ship" speed="13.89" length="17.83" shape="5073.27,4326.54 5060.91,4313.69"/>
        <lane id=":140848383_1_1" index="1" disallow="tram rail_urban rail rail_electric ship" speed="13.89" length="17.83" shape="5075.58,4324.32 5063.22,4311.47"/>
    </edge>
    <edge id=":140848383_3" function="internal">
        <lane id=":140848383_3_0" index="0" disallow="tram rail_urban rail rail_electric ship" speed="3.65" length="2.34" shape="5075.58,4324.32 5075.32,4322.90 5075.62,4322.06"/>
    </edge>
    <edge id=":140848383_13" function="internal">
        <lane id=":140848383_13_0" index="0" disallow="tram rail_urban rail rail_electric ship" speed="3.65" length="2.34" shape="5075.62,4322.06 5076.47,4321.79 5077.88,4322.10"/>
    </edge>
    <edge id=":140848383_4" function="internal">
        <lane id=":140848383_4_0" index="0" disallow="tram rail_urban rail rail_electric ship" speed="6.47" length="9.03" shape="5080.41,4312.00 5078.85,4313.93 5078.29,4315.88 5078.74,4317.87 5080.19,4319.88"/>
    </edge>
    <edge id=":140848383_5" function="internal">
        <lane id=":140848383_5_0" index="0" disallow="tram rail_urban rail rail_electric ship" speed="11.11" length="20.97" shape="5080.41,4312.00 5065.03,4326.26"/>
        <lane id=":140848383_5_1" index="1" disallow="tram rail_urban rail rail_electric ship" speed="11.11" length="20.97" shape="5078.23,4309.65 5062.86,4323.92"/>
        <lane id=":140848383_5_2" index="2" disallow="tram rail_urban rail rail_electric ship" speed="11.11" length="20.97" shape="5076.05,4307.31 5060.68,4321.57"/>
    </edge>
    <edge id=":140848383_8" function="internal">
        <lane id=":140848383_8_0" index="0" disallow="tram rail_urban rail rail_electric ship" speed="8.22" length="14.81" shape="5076.05,4307.31 5071.92,4310.66 5068.40,4312.48 5065.50,4312.75 5063.22,4311.47"/>
    </edge>
    <edge id=":140848383_9" function="internal">
        <lane id=":140848383_9_0" index="0" disallow="tram rail_urban rail rail_electric ship" speed="13.89" length="17.82" shape="5067.84,4307.04 5080.19,4319.88"/>
        <lane id=":140848383_9_1" index="1" disallow="tram rail_urban rail rail_electric ship" speed="13.89" length="17.82" shape="5065.53,4309.26 5077.88,4322.10"/>
    </edge>
    <edge id=":140848383_11" function="internal">
        <lane id=":140848383_11_0" index="0" disallow="tram rail_urban rail rail_electric ship" speed="8.06" length="3.68" shape="5065.53,4309.26 5066.71,4311.58 5066.56,4312.64"/>
    </edge>
    <edge id=":140848383_12" function="internal">
        <lane id=":140848383_12_0" index="0" disallow="tram rail_urban rail rail_electric ship" speed="3.65" length="2.34" shape="5065.53,4309.26 5065.78,4310.68 5065.48,4311.52"/>
    </edge>
    <edge id=":140848383_14" function="internal">
        <lane id=":140848383_14_0" index="0" disallow="tram rail_urban rail rail_electric ship" speed="8.06" length="10.94" shape="5066.56,4312.64 5066.30,4314.40 5064.29,4317.73 5060.68,4321.57"/>
    </edge>
    <edge id=":140848383_15" function="internal">
        <lane id=":140848383_15_0" index="0" disallow="tram rail_urban rail rail_electric ship" speed="3.65" length="2.34" shape="5065.48,4311.52 5064.63,4311.78 5063.22,4311.47"/>
    </edge>
    <edge id=":140848384_0" function="internal">
        <lane id=":140848384_0_0" index="0" disallow="tram rail_urban rail rail_electric ship" speed="13.89" length="14.27" shape="5219.51,4482.07 5209.62,4471.72"/>
        <lane id=":140848384_0_1" index="1" disallow="tram rail_urban rail rail_electric ship" speed="13.89" length="14.27" shape="5221.79,4479.83 5211.96,4469.54"/>
    </edge>
    <edge id=":140848384_2" function="internal">
        <lane id=":140848384_2_0" index="0" disallow="tram rail_urban rail rail_electric ship" speed="3.65" length="2.34" shape="5221.79,4479.83 5221.52,4478.42 5221.82,4477.57"/>
    </edge>
    <edge id=":140848384_8" function="internal">
        <lane id=":140848384_8_0" index="0" disallow="tram rail_urban rail rail_electric ship" speed="3.65" length="2.34" shape="5221.82,4477.57 5222.67,4477.30 5224.08,4477.59"/>
    </edge>
    <edge id=":140848384_3" function="internal">
        <lane id=":140848384_3_0" index="0" disallow="tram rail_urban rail rail_electric ship" speed="13.89" length="14.11" shape="5216.65,4465.18 5226.36,4475.35"/>
        <lane id=":140848384_3_1" index="1" disallow="tram rail_urban rail rail_electric ship" speed="13.89" length="14.11" shape="5214.30,4467.36 5224.08,4477.59"/>
    </edge>
    <edge id=":140848384_5" function="internal">
        <lane id=":140848384_5_0" index="0" disallow="tram rail_urban rail rail_electric ship" speed="3.65" length="2.34" shape="5214.30,4467.36 5214.54,4468.78 5214.23,4469.62"/>
    </edge>
    <edge id=":140848384_9" function="internal">
        <lane id=":140848384_9_0" index="0" disallow="tram rail_urban rail rail_electric ship" speed="3.65" length="2.34" shape="5214.23,4469.62 5213.37,4469.88 5211.96,4469.54"/>
    </edge>
    <edge id=":140848384_6" function="internal">
        <lane id=":140848384_6_0" index="0" disallow="tram rail_urban rail rail_electric ship" speed="6.51" length="8.99" shape="5209.37,4479.62 5210.90,4477.69 5211.46,4475.73 5211.03,4473.74 5209.62,4471.72"/>
    </edge>
    <edge id=":140848384_7" function="internal">
        <lane id=":140848384_7_0" index="0" disallow="tram rail_urban rail rail_electric ship" speed="8.14" length="14.50" shape="5211.57,4481.94 5215.62,4478.58 5219.05,4476.74 5221.87,4476.41 5224.08,4477.59"/>
    </edge>
    <edge id=":140848388_0" function="internal">
        <lane id=":140848388_0_0" index="0" disallow="tram rail_urban rail rail_electric ship" speed="13.89" length="18.75" shape="5649.19,4800.69 5643.90,4798.77 5640.32,4797.36 5636.83,4795.75 5631.79,4793.26"/>
        <lane id=":140848388_0_1" index="1" disallow="tram rail_urban rail rail_electric ship" speed="13.89" length="18.75" shape="5650.27,4797.68 5645.09,4795.80 5641.59,4794.41 5638.16,4792.84 5633.22,4790.40"/>
    </edge>
    <edge id=":140848388_2" function="internal">
        <lane id=":140848388_2_0" index="0" disallow="tram rail_urban rail rail_electric ship" speed="3.65" length="2.34" shape="5650.27,4797.68 5649.41,4796.52 5649.31,4795.63"/>
    </edge>
    <edge id=":140848388_9" function="internal">
        <lane id=":140848388_9_0" index="0" disallow="tram rail_urban rail rail_electric ship" speed="3.65" length="2.34" shape="5649.31,4795.63 5649.96,4795.01 5651.36,4794.67"/>
    </edge>
    <edge id=":140848388_3" function="internal">
        <lane id=":140848388_3_0" index="0" disallow="tram rail_urban rail rail_electric ship" speed="6.33" length="9.04" shape="5649.44,4784.49 5648.73,4786.90 5648.99,4788.89 5650.23,4790.48 5652.44,4791.66"/>
    </edge>
    <edge id=":140848388_4" function="internal">
        <lane id=":140848388_4_0" index="0" disallow="tram rail_urban rail rail_electric ship" speed="9.32" length="20.11" shape="5646.53,4783.15 5643.16,4789.11 5639.57,4792.78 5635.79,4794.16 5631.79,4793.26"/>
    </edge>
    <edge id=":140848388_5" function="internal">
        <lane id=":140848388_5_0" index="0" disallow="tram rail_urban rail rail_electric ship" speed="8.10" length="14.93" shape="5643.63,4781.81 5641.04,4786.55 5638.44,4789.56 5635.84,4790.84 5633.22,4790.40"/>
    </edge>
    <edge id=":140848388_6" function="internal">
        <lane id=":140848388_6_0" index="0" disallow="tram rail_urban rail rail_electric ship" speed="13.89" length="17.99" shape="5636.09,4784.67 5640.82,4787.02 5644.11,4788.53 5647.47,4789.85 5652.44,4791.66"/>
        <lane id=":140848388_6_1" index="1" disallow="tram rail_urban rail rail_electric ship" speed="13.89" length="17.99" shape="5634.66,4787.53 5639.49,4789.93 5642.85,4791.47 5646.28,4792.83 5651.36,4794.67"/>
    </edge>
    <edge id=":140848388_8" function="internal">
        <lane id=":140848388_8_0" index="0" disallow="tram rail_urban rail rail_electric ship" speed="3.65" length="2.34" shape="5634.66,4787.53 5635.37,4788.79 5635.37,4789.68"/>
    </edge>
    <edge id=":140848388_10" function="internal">
        <lane id=":140848388_10_0" index="0" disallow="tram rail_urban rail rail_electric ship" speed="3.65" length="2.34" shape="5635.37,4789.68 5634.66,4790.22 5633.22,4790.40"/>
    </edge>
    <edge id=":140848390_0" function="internal">
        <lane id=":140848390_0_0" index="0" disallow="tram rail_urban rail rail_electric ship" speed="13.89" length="0.29" shape="5945.47,4907.47 5945.20,4907.38"/>
        <lane id=":140848390_0_1" index="1" disallow="tram rail_urban rail rail_electric ship" speed="13.89" length="0.29" shape="5946.56,4904.47 5946.28,4904.36"/>
    </edge>
    <edge id=":140848390_2" function="internal">
        <lane id=":140848390_2_0" index="0" disallow="tram rail_urban rail rail_electric ship" speed="3.65" length="2.34" shape="5946.56,4904.47 5945.71,4903.30 5945.60,4902.42"/>
    </edge>
    <edge id=":140848390_6" function="internal">
        <lane id=":140848390_6_0" index="0" disallow="tram rail_urban rail rail_electric ship" speed="3.65" length="2.34" shape="5945.60,4902.42 5946.25,4901.80 5947.65,4901.46"/>
    </edge>
    <edge id=":140848390_3" function="internal">
        <lane id=":140848390_3_0" index="0" disallow="tram rail_urban rail rail_electric ship" speed="13.89" length="0.31" shape="5948.45,4898.34 5948.74,4898.45"/>
        <lane id=":140848390_3_1" index="1" disallow="tram rail_urban rail rail_electric ship" speed="13.89" length="0.31" shape="5947.37,4901.35 5947.65,4901.46"/>
    </edge>
    <edge id=":140848390_5" function="internal">
        <lane id=":140848390_5_0" index="0" disallow="tram rail_urban rail rail_electric ship" speed="3.65" length="2.34" shape="5947.37,4901.35 5948.23,4902.51 5948.33,4903.40"/>
    </edge>
    <edge id=":140848390_7" function="internal">
        <lane id=":140848390_7_0" index="0" disallow="tram rail_urban rail rail_electric ship" speed="3.65" length="2.34" shape="5948.33,4903.40 5947.68,4904.02 5946.28,4904.36"/>
    </edge>
    <edge id=":1421376033_0" function="internal">
        <lane id=":1421376033_0_0" index="0" disallow="tram rail_urban rail rail_electric ship" speed="13.89" length="7.87" shape="4581.86,4405.53 4576.01,4410.91"/>
        <lane id=":1421376033_0_1" index="1" disallow="tram rail_urban rail rail_electric ship" speed="13.89" length="7.87" shape="4579.68,4403.20 4573.89,4408.52"/>
        <lane id=":1421376033_0_2" index="2" disallow="tram rail_urban rail rail_electric ship" speed="13.89" length="7.87" shape="4577.49,4400.86 4571.76,4406.13"/>
    </edge>
    <edge id=":1421376033_3" function="internal">
        <lane id=":1421376033_3_0" index="0" disallow="tram rail_urban rail rail_electric ship" speed="13.89" length="8.39" shape="4577.49,4400.86 4576.07,4402.83 4575.60,4404.63 4575.04,4406.29 4573.34,4407.91"/>
    </edge>
    <edge id=":1421376041_0" function="internal">
        <lane id=":1421376041_0_0" index="0" disallow="tram rail_urban rail rail_electric ship" speed="5.35" length="6.42" shape="4615.57,4380.82 4613.65,4382.51 4612.50,4383.90 4612.09,4385.01 4612.44,4385.82"/>
    </edge>
    <edge id=":1421376041_1" function="internal">
        <lane id=":1421376041_1_0" index="0" disallow="tram rail_urban rail rail_electric ship" speed="7.04" length="11.98" shape="4613.57,4378.32 4610.55,4381.19 4609.00,4383.78 4608.91,4386.11 4610.27,4388.17"/>
    </edge>
    <edge id=":1421376041_2" function="internal">
        <lane id=":1421376041_2_0" index="0" allow="bus bicycle" speed="3.65" length="2.50" shape="4611.57,4375.83 4610.13,4375.95 4609.32,4375.58 4609.28,4375.41"/>
    </edge>
    <edge id=":1421376041_6" function="internal">
        <lane id=":1421376041_6_0" index="0" allow="bus bicycle" speed="3.65" length="2.17" shape="4609.28,4375.41 4609.13,4374.70 4609.56,4373.33"/>
    </edge>
    <edge id=":1421376041_3" function="internal">
        <lane id=":1421376041_3_0" index="0" allow="bus bicycle" speed="7.39" length="10.67" shape="4599.93,4374.21 4602.01,4375.54 4604.30,4375.83 4606.82,4375.10 4609.56,4373.33"/>
    </edge>
    <edge id=":1421376041_4" function="internal">
        <lane id=":1421376041_4_0" index="0" disallow="tram rail_urban rail rail_electric ship" speed="13.89" length="17.08" shape="4599.93,4374.21 4612.44,4385.82"/>
        <lane id=":1421376041_4_1" index="1" disallow="tram rail_urban rail rail_electric ship" speed="13.89" length="17.08" shape="4597.74,4376.54 4610.27,4388.17"/>
    </edge>
    <edge id=":1421393940_0" function="internal">
        <lane id=":1421393940_0_0" index="0" disallow="tram rail_urban rail rail_electric ship" speed="25.00" length="8.16" shape="4547.24,4421.53 4545.62,4423.30 4544.78,4424.76 4543.92,4426.20 4542.26,4427.92"/>
    </edge>
    <edge id=":1421393958_0" function="internal">
        <lane id=":1421393958_0_0" index="0" disallow="tram rail_urban rail rail_electric ship" speed="20.83" length="7.93" shape="4584.60,4388.55 4582.89,4390.09 4581.76,4391.19 4580.71,4392.36 4579.20,4394.09"/>
        <lane id=":1421393958_0_1" index="1" disallow="tram rail_urban rail rail_electric ship" speed="20.83" length="7.93" shape="4582.47,4386.16 4580.69,4387.77 4579.51,4388.92 4578.40,4390.14 4576.82,4391.95"/>
    </edge>
    <edge id=":1421393958_2" function="internal">
        <lane id=":1421393958_2_0" index="0" disallow="tram rail_urban rail rail_electric ship" speed="13.89" length="9.17" shape="4582.47,4386.16 4581.15,4388.33 4581.15,4390.47 4581.08,4392.51 4579.54,4394.41"/>
    </edge>
    <edge id=":1421393958_3" function="internal">
        <lane id=":1421393958_3_0" index="0" disallow="tram rail_urban rail rail_electric ship" speed="13.89" length="8.15" shape="4582.47,4386.16 4580.83,4387.92 4579.91,4389.35 4578.93,4390.69 4577.09,4392.19"/>
    </edge>
    <edge id=":1421393958_4" function="internal">
        <lane id=":1421393958_4_0" index="0" disallow="tram rail_urban rail rail_electric ship" speed="13.89" length="8.79" shape="4582.47,4386.16 4580.38,4387.64 4578.70,4388.25 4576.94,4388.78 4574.63,4389.98"/>
    </edge>
    <edge id=":1423143099_0" function="internal">
        <lane id=":1423143099_0_0" index="0" disallow="tram rail_urban rail rail_electric ship" speed="7.08" length="8.19" shape="4434.85,4528.80 4432.67,4528.22 4430.71,4528.30 4428.95,4529.02 4427.41,4530.41"/>
    </edge>
    <edge id=":1423143099_1" function="internal">
        <lane id=":1423143099_1_0" index="0" disallow="tram rail_urban rail rail_electric ship" speed="12.25" length="11.78" shape="4434.85,4528.80 4431.47,4527.31 4429.34,4525.81 4427.78,4523.71 4426.07,4520.42"/>
        <lane id=":1423143099_1_1" index="1" disallow="tram rail_urban rail rail_electric ship" speed="8.87" length="11.78" shape="4436.57,4525.90 4434.46,4525.39 4432.47,4524.04 4430.60,4521.85 4428.86,4518.83"/>
    </edge>
    <edge id=":1423143099_3" function="internal">
        <lane id=":1423143099_3_0" index="0" disallow="tram rail_urban rail rail_electric ship" speed="7.53" length="8.50" shape="4424.96,4528.34 4426.22,4526.45 4426.82,4524.49 4426.77,4522.48 4426.07,4520.42"/>
    </edge>
    <edge id=":1423143099_4" function="internal">
        <lane id=":1423143099_4_0" index="0" disallow="tram rail_urban rail rail_electric ship" speed="3.65" length="4.67" shape="4424.96,4528.34 4426.35,4527.94 4427.22,4528.15 4427.57,4528.97 4427.41,4530.41"/>
    </edge>
    <edge id=":1423143122_0" function="internal">
        <lane id=":1423143122_0_0" index="0" disallow="tram rail_urban rail rail_electric ship" speed="18.05" length="13.51" shape="4429.61,4420.86 4427.88,4417.78 4426.33,4414.92 4424.61,4412.18 4422.41,4409.46"/>
    </edge>
    <edge id=":1423143122_1" function="internal">
        <lane id=":1423143122_1_0" index="0" disallow="tram rail_urban rail rail_electric ship" speed="13.89" length="13.51" shape="4432.40,4418.55 4429.74,4416.25 4427.28,4414.14 4424.88,4411.96 4422.41,4409.46"/>
    </edge>
    <edge id=":1423143129_0" function="internal">
        <lane id=":1423143129_0_0" index="0" disallow="tram rail_urban rail rail_electric ship" speed="20.83" length="0.29" shape="4574.54,4397.70 4574.25,4397.88"/>
        <lane id=":1423143129_0_1" index="1" disallow="tram rail_urban rail rail_electric ship" speed="20.83" length="0.29" shape="4572.78,4395.03 4572.54,4395.18"/>
        <lane id=":1423143129_0_2" index="2" disallow="tram rail_urban rail rail_electric ship" speed="20.83" length="0.29" shape="4571.02,4392.35 4570.83,4392.48"/>
    </edge>
    <edge id=":142796703_0" function="internal">
        <lane id=":142796703_0_0" index="0" disallow="tram rail_urban rail rail_electric ship" speed="12.50" length="25.44" shape="4456.82,4281.39 4465.70,4282.65 4472.73,4283.03 4477.92,4282.54 4481.27,4281.17"/>
        <lane id=":142796703_0_1" index="1" disallow="tram rail_urban rail rail_electric ship" speed="12.50" length="25.44" shape="4456.82,4281.39 4467.41,4283.12 4475.24,4284.15 4480.31,4284.50 4482.61,4284.16"/>
    </edge>
    <edge id=":142796703_2" function="internal">
        <lane id=":142796703_2_0" index="0" disallow="tram rail_urban rail rail_electric ship" speed="13.89" length="29.37" shape="4456.27,4284.54 4464.96,4285.52 4471.06,4285.72 4476.93,4286.63 4484.93,4289.74"/>
    </edge>
    <edge id=":142796703_3" function="internal">
        <lane id=":142796703_3_0" index="0" disallow="tram rail_urban rail rail_electric ship" speed="13.89" length="28.50" shape="4455.73,4287.69 4464.16,4288.63 4470.08,4288.78 4475.78,4289.63 4483.55,4292.63"/>
    </edge>
    <edge id=":142796703_4" function="internal">
        <lane id=":142796703_4_0" index="0" disallow="tram rail_urban rail rail_electric ship" speed="13.89" length="27.74" shape="4455.73,4287.69 4463.84,4289.07 4469.38,4290.26 4474.70,4292.12 4482.17,4295.51"/>
    </edge>
    <edge id=":142796703_5" function="internal">
        <lane id=":142796703_5_0" index="0" disallow="tram rail_urban rail rail_electric ship" speed="13.89" length="27.45" shape="4455.73,4287.69 4463.58,4289.52 4468.68,4291.72 4473.58,4294.58 4480.79,4298.40"/>
    </edge>
    <edge id=":142808170_0" function="internal">
        <lane id=":142808170_0_0" index="0" disallow="tram rail_urban rail rail_electric ship" speed="3.65" length="4.67" shape="6164.00,3308.84 6165.43,3308.64 6166.25,3308.98 6166.48,3309.84 6166.11,3311.23"/>
    </edge>
    <edge id=":1464773890_0" function="internal">
        <lane id=":1464773890_0_0" index="0" disallow="tram rail_urban rail rail_electric ship" speed="13.89" length="14.32" shape="5988.21,4711.52 5985.73,4708.90 5982.88,4706.88 5979.72,4705.27 5976.33,4703.85"/>
    </edge>
    <edge id=":1464773890_1" function="internal">
        <lane id=":1464773890_1_0" index="0" disallow="tram rail_urban rail rail_electric ship" speed="13.89" length="16.19" shape="5988.21,4711.52 5986.15,4708.20 5984.49,4704.39 5983.23,4700.41 5982.35,4696.56"/>
    </edge>
    <edge id=":1464773890_2" function="internal">
        <lane id=":1464773890_2_0" index="0" disallow="tram rail_urban rail rail_electric ship" speed="5.56" length="9.02" shape="5977.51,4700.88 5980.09,4701.51 5981.76,4701.00 5982.51,4699.35 5982.35,4696.56"/>
    </edge>
    <edge id=":1464773890_3" function="internal">
        <lane id=":1464773890_3_0" index="0" disallow="tram rail_urban rail rail_electric ship" speed="3.65" length="2.34" shape="5977.51,4700.88 5978.33,4702.06 5978.41,4702.95"/>
    </edge>
    <edge id=":1464773890_4" function="internal">
        <lane id=":1464773890_4_0" index="0" disallow="tram rail_urban rail rail_electric ship" speed="3.65" length="2.34" shape="5978.41,4702.95 5977.74,4703.55 5976.33,4703.85"/>
    </edge>
    <edge id=":1492963064_0" function="internal">
        <lane id=":1492963064_0_0" index="0" disallow="tram rail_urban rail rail_electric ship" speed="9.83" length="12.72" shape="4005.60,4056.44 4003.36,4055.38 4000.57,4055.10 3997.25,4055.61 3993.38,4056.90"/>
    </edge>
    <edge id=":1492963064_1" function="internal">
        <lane id=":1492963064_1_0" index="0" disallow="tram rail_urban rail rail_electric ship" speed="13.89" length="15.61" shape="4005.60,4056.44 3992.92,4047.39"/>
        <lane id=":1492963064_1_1" index="1" disallow="tram rail_urban rail rail_electric ship" speed="13.89" length="15.61" shape="4007.50,4053.86 3994.80,4044.78"/>
        <lane id=":1492963064_1_2" index="2" disallow="tram rail_urban rail rail_electric ship" speed="13.89" length="15.61" shape="4009.39,4051.28 3996.67,4042.18"/>
    </edge>
    <edge id=":1492963064_4" function="internal">
        <lane id=":1492963064_4_0" index="0" allow="bus bicycle" speed="3.65" length="2.34" shape="4009.39,4051.28 4008.90,4049.93 4009.05,4049.04"/>
    </edge>
    <edge id=":1492963064_11" function="internal">
        <lane id=":1492963064_11_0" index="0" allow="bus bicycle" speed="3.65" length="2.34" shape="4009.05,4049.04 4009.85,4048.64 4011.29,4048.70"/>
    </edge>
    <edge id=":1492963064_5" function="internal">
        <lane id=":1492963064_5_0" index="0" allow="bus bicycle" speed="13.89" length="15.67" shape="3998.55,4039.58 4011.29,4048.70"/>
    </edge>
    <edge id=":1492963064_6" function="internal">
        <lane id=":1492963064_6_0" index="0" disallow="tram rail_urban rail rail_electric ship" speed="8.40" length="6.53" shape="3998.55,4039.58 4002.64,4043.95 4002.64,4044.48"/>
    </edge>
    <edge id=":1492963064_7" function="internal">
        <lane id=":1492963064_7_0" index="0" disallow="tram rail_urban rail rail_electric ship" speed="3.65" length="2.34" shape="3998.55,4039.58 3999.05,4040.93 3998.91,4041.82"/>
    </edge>
    <edge id=":1492963064_12" function="internal">
        <lane id=":1492963064_12_0" index="0" disallow="tram rail_urban rail rail_electric ship" speed="8.40" length="16.85" shape="4002.64,4044.48 4002.64,4048.78 3999.30,4053.34 3993.38,4056.90"/>
    </edge>
    <edge id=":1492963064_13" function="internal">
        <lane id=":1492963064_13_0" index="0" disallow="tram rail_urban rail rail_electric ship" speed="3.65" length="2.34" shape="3998.91,4041.82 3998.12,4042.23 3996.67,4042.18"/>
    </edge>
    <edge id=":1492963064_8" function="internal">
        <lane id=":1492963064_8_0" index="0" disallow="tram rail_urban rail rail_electric ship" speed="5.61" length="9.58" shape="3992.18,4053.94 3994.80,4052.48 3995.80,4050.90 3995.18,4049.20 3992.92,4047.39"/>
    </edge>
    <edge id=":1492963064_9" function="internal">
        <lane id=":1492963064_9_0" index="0" allow="bus bicycle" speed="12.24" length="20.04" shape="3992.18,4053.94 3999.70,4051.04 4005.40,4049.20 4009.26,4048.42 4011.29,4048.70"/>
    </edge>
    <edge id=":1492963064_10" function="internal">
        <lane id=":1492963064_10_0" index="0" disallow="tram rail_urban rail rail_electric ship" speed="3.65" length="4.67" shape="3992.18,4053.94 3993.59,4054.23 3994.26,4054.82 3994.19,4055.71 3993.38,4056.90"/>
    </edge>
    <edge id=":1492963067_0" function="internal">